  
       XFOIL         Version 6.99
  
 Calculated polar for:                                                 
  
 1 1 Reynolds number fixed          Mach number fixed         
  
 xtrf =   1.000 (top)        1.000 (bottom)  
 Mach =   0.000     Re =     1.000 e 6     Ncrit =   9.000
  
   alpha    CL        CD       CDp       CM     Top_Xtr  Bot_Xtr
  ------ -------- --------- --------- -------- -------- --------
   1.000   0.0917   0.00461   0.00097   0.0051   0.6481   0.8897
   3.000   0.3415   0.00662   0.00186  -0.0004   0.2943   0.9763
   5.000   0.6109   0.00923   0.00347  -0.0115   0.0537   0.9955
