  
       XFOIL         Version 6.99
  
 Calculated polar for:                                                 
  
 1 1 Reynolds number fixed          Mach number fixed         
  
 xtrf =   1.000 (top)        1.000 (bottom)  
 Mach =   0.000     Re =     0.400 e 6     Ncrit =   9.000
  
   alpha    CL        CD       CDp       CM     Top_Xtr  Bot_Xtr
  ------ -------- --------- --------- -------- -------- --------
   0.000   0.8773   0.00825   0.00392  -0.2056   0.8376   1.0000
   2.000   1.0997   0.00846   0.00377  -0.2056   0.7854   1.0000
   4.000   1.2985   0.00918   0.00439  -0.2006   0.6960   1.0000
   5.000   1.3772   0.01020   0.00517  -0.1939   0.6066   1.0000
