  
       XFOIL         Version 6.99
  
 Calculated polar for:                                                 
  
 1 1 Reynolds number fixed          Mach number fixed         
  
 xtrf =   1.000 (top)        1.000 (bottom)  
 Mach =   0.000     Re =     0.400 e 6     Ncrit =   9.000
  
   alpha    CL        CD       CDp       CM     Top_Xtr  Bot_Xtr
  ------ -------- --------- --------- -------- -------- --------
   0.000   0.9378   0.00823   0.00378  -0.2191   0.8384   1.0000
   2.000   1.1537   0.00877   0.00390  -0.2178   0.7683   1.0000
   4.000   1.3415   0.01001   0.00492  -0.2105   0.6581   1.0000
   5.000   1.4170   0.01122   0.00591  -0.2031   0.5800   1.0000
