  
       XFOIL         Version 6.99
  
 Calculated polar for:                                                 
  
 1 1 Reynolds number fixed          Mach number fixed         
  
 xtrf =   1.000 (top)        1.000 (bottom)  
 Mach =   0.000     Re =     0.400 e 6     Ncrit =   9.000
  
   alpha    CL        CD       CDp       CM     Top_Xtr  Bot_Xtr
  ------ -------- --------- --------- -------- -------- --------
   0.000   1.0125   0.00845   0.00351  -0.2282   0.7769   1.0000
   2.000   1.2228   0.00945   0.00401  -0.2268   0.7050   1.0000
   4.000   1.4146   0.01092   0.00539  -0.2217   0.6228   1.0000
   5.000   1.5018   0.01189   0.00643  -0.2175   0.5793   1.0000
