  
       XFOIL         Version 6.99
  
 Calculated polar for:                                                 
  
 1 1 Reynolds number fixed          Mach number fixed         
  
 xtrf =   1.000 (top)        1.000 (bottom)  
 Mach =   0.000     Re =     0.400 e 6     Ncrit =   9.000
  
   alpha    CL        CD       CDp       CM     Top_Xtr  Bot_Xtr
  ------ -------- --------- --------- -------- -------- --------
   0.000   0.8501   0.00789   0.00335  -0.1915   0.8017   1.0000
   2.000   1.0691   0.00837   0.00340  -0.1908   0.7390   1.0000
   4.000   1.2693   0.00945   0.00427  -0.1866   0.6412   1.0000
   5.000   1.3583   0.01046   0.00514  -0.1824   0.5733   1.0000
