  
       XFOIL         Version 6.99
  
 Calculated polar for:                                                 
  
 1 1 Reynolds number fixed          Mach number fixed         
  
 xtrf =   1.000 (top)        1.000 (bottom)  
 Mach =   0.000     Re =     0.400 e 6     Ncrit =   9.000
  
   alpha    CL        CD       CDp       CM     Top_Xtr  Bot_Xtr
  ------ -------- --------- --------- -------- -------- --------
   0.000   0.9669   0.00829   0.00383  -0.2249   0.8387   1.0000
   2.000   1.1835   0.00868   0.00388  -0.2241   0.7823   1.0000
   4.000   1.3754   0.00960   0.00478  -0.2180   0.6877   1.0000
   5.000   1.4518   0.01071   0.00572  -0.2108   0.6037   1.0000
