  
       XFOIL         Version 6.99
  
 Calculated polar for:                                                 
  
 1 1 Reynolds number fixed          Mach number fixed         
  
 xtrf =   1.000 (top)        1.000 (bottom)  
 Mach =   0.000     Re =     0.400 e 6     Ncrit =   9.000
  
   alpha    CL        CD       CDp       CM     Top_Xtr  Bot_Xtr
  ------ -------- --------- --------- -------- -------- --------
   0.000   0.9184   0.00852   0.00391  -0.2106   0.8094   1.0000
   2.000   1.1359   0.00892   0.00399  -0.2101   0.7580   1.0000
   4.000   1.3372   0.00973   0.00472  -0.2063   0.6832   1.0000
   5.000   1.4237   0.01053   0.00547  -0.2015   0.6258   1.0000
