  
       XFOIL         Version 6.99
  
 Calculated polar for:                                                 
  
 1 1 Reynolds number fixed          Mach number fixed         
  
 xtrf =   1.000 (top)        1.000 (bottom)  
 Mach =   0.000     Re =     0.400 e 6     Ncrit =   9.000
  
   alpha    CL        CD       CDp       CM     Top_Xtr  Bot_Xtr
  ------ -------- --------- --------- -------- -------- --------
   0.000   0.8901   0.00811   0.00376  -0.2056   0.8290   1.0000
   2.000   1.1080   0.00844   0.00368  -0.2041   0.7700   1.0000
   4.000   1.3049   0.00935   0.00439  -0.1984   0.6692   1.0000
   5.000   1.3852   0.01051   0.00525  -0.1919   0.5792   1.0000
