  
       XFOIL         Version 6.99
  
 Calculated polar for:                                                 
  
 1 1 Reynolds number fixed          Mach number fixed         
  
 xtrf =   1.000 (top)        1.000 (bottom)  
 Mach =   0.000     Re =     0.400 e 6     Ncrit =   9.000
  
   alpha    CL        CD       CDp       CM     Top_Xtr  Bot_Xtr
  ------ -------- --------- --------- -------- -------- --------
   0.000   0.9540   0.00873   0.00402  -0.2310   0.7995   0.8609
   2.000   1.1568   0.00911   0.00416  -0.2273   0.7575   1.0000
   4.000   1.3657   0.00994   0.00503  -0.2256   0.7054   1.0000
   5.000   1.4590   0.01048   0.00569  -0.2223   0.6675   1.0000
