  
       XFOIL         Version 6.99
  
 Calculated polar for:                                                 
  
 1 1 Reynolds number fixed          Mach number fixed         
  
 xtrf =   1.000 (top)        1.000 (bottom)  
 Mach =   0.000     Re =     0.400 e 6     Ncrit =   9.000
  
   alpha    CL        CD       CDp       CM     Top_Xtr  Bot_Xtr
  ------ -------- --------- --------- -------- -------- --------
   0.000   1.0012   0.00981   0.00468  -0.2316   0.8129   0.6676
   2.000   1.2001   0.00934   0.00451  -0.2260   0.7670   1.0000
   4.000   1.4007   0.00998   0.00511  -0.2216   0.6972   1.0000
   5.000   1.4856   0.01073   0.00579  -0.2162   0.6380   1.0000
