  
       XFOIL         Version 6.99
  
 Calculated polar for:                                                 
  
 1 1 Reynolds number fixed          Mach number fixed         
  
 xtrf =   1.000 (top)        1.000 (bottom)  
 Mach =   0.000     Re =     0.400 e 6     Ncrit =   9.000
  
   alpha    CL        CD       CDp       CM     Top_Xtr  Bot_Xtr
  ------ -------- --------- --------- -------- -------- --------
   0.000   0.9325   0.00902   0.00444  -0.2193   0.8318   1.0000
   2.000   1.1588   0.00917   0.00430  -0.2212   0.7940   1.0000
   4.000   1.3625   0.00961   0.00497  -0.2182   0.7384   1.0000
   5.000   1.4488   0.01005   0.00557  -0.2132   0.6864   1.0000
