  
       XFOIL         Version 6.99
  
 Calculated polar for:                                                 
  
 1 1 Reynolds number fixed          Mach number fixed         
  
 xtrf =   1.000 (top)        1.000 (bottom)  
 Mach =   0.000     Re =     0.400 e 6     Ncrit =   9.000
  
   alpha    CL        CD       CDp       CM     Top_Xtr  Bot_Xtr
  ------ -------- --------- --------- -------- -------- --------
   0.000   0.9867   0.00925   0.00420  -0.2310   0.8080   0.7047
   2.000   1.1834   0.00905   0.00417  -0.2252   0.7631   1.0000
   4.000   1.3863   0.00974   0.00490  -0.2215   0.6972   1.0000
   5.000   1.4785   0.01039   0.00557  -0.2178   0.6487   1.0000
