  
       XFOIL         Version 6.99
  
 Calculated polar for:                                                 
  
 1 1 Reynolds number fixed          Mach number fixed         
  
 xtrf =   1.000 (top)        1.000 (bottom)  
 Mach =   0.000     Re =     0.400 e 6     Ncrit =   9.000
  
   alpha    CL        CD       CDp       CM     Top_Xtr  Bot_Xtr
  ------ -------- --------- --------- -------- -------- --------
   0.000   0.9535   0.00962   0.00467  -0.2320   0.8270   0.7121
   2.000   1.1496   0.00920   0.00449  -0.2259   0.7883   1.0000
   4.000   1.3549   0.00965   0.00500  -0.2227   0.7311   1.0000
   5.000   1.4454   0.01012   0.00558  -0.2186   0.6871   1.0000
