  
       XFOIL         Version 6.99
  
 Calculated polar for:                                                 
  
 1 1 Reynolds number fixed          Mach number fixed         
  
 xtrf =   1.000 (top)        1.000 (bottom)  
 Mach =   0.000     Re =     0.400 e 6     Ncrit =   9.000
  
   alpha    CL        CD       CDp       CM     Top_Xtr  Bot_Xtr
  ------ -------- --------- --------- -------- -------- --------
   0.000   0.9247   0.00878   0.00424  -0.2214   0.8121   1.0000
   2.000   1.1481   0.00923   0.00439  -0.2226   0.7728   1.0000
   4.000   1.3545   0.00981   0.00500  -0.2200   0.7159   1.0000
   5.000   1.4464   0.01032   0.00560  -0.2163   0.6750   1.0000
