  
       XFOIL         Version 6.99
  
 Calculated polar for:                                                 
  
 1 1 Reynolds number fixed          Mach number fixed         
  
 xtrf =   1.000 (top)        1.000 (bottom)  
 Mach =   0.000     Re =     0.400 e 6     Ncrit =   9.000
  
   alpha    CL        CD       CDp       CM     Top_Xtr  Bot_Xtr
  ------ -------- --------- --------- -------- -------- --------
   0.000   0.9597   0.00959   0.00455  -0.2224   0.8300   0.6199
   2.000   1.1594   0.00893   0.00434  -0.2162   0.7847   1.0000
   4.000   1.3563   0.00945   0.00472  -0.2100   0.6875   1.0000
   5.000   1.4140   0.01124   0.00579  -0.1985   0.5365   1.0000
