  
       XFOIL         Version 6.99
  
 Calculated polar for:                                                 
  
 1 1 Reynolds number fixed          Mach number fixed         
  
 xtrf =   1.000 (top)        1.000 (bottom)  
 Mach =   0.000     Re =     0.400 e 6     Ncrit =   9.000
  
   alpha    CL        CD       CDp       CM     Top_Xtr  Bot_Xtr
  ------ -------- --------- --------- -------- -------- --------
   0.000   0.9989   0.00915   0.00391  -0.2311   0.7971   0.6682
   2.000   1.1883   0.00901   0.00403  -0.2235   0.7360   1.0000
   4.000   1.3837   0.01016   0.00498  -0.2183   0.6496   1.0000
   5.000   1.4687   0.01113   0.00586  -0.2131   0.5924   1.0000
