  
       XFOIL         Version 6.99
  
 Calculated polar for:                                                 
  
 1 1 Reynolds number fixed          Mach number fixed         
  
 xtrf =   1.000 (top)        1.000 (bottom)  
 Mach =   0.000     Re =     0.400 e 6     Ncrit =   9.000
  
   alpha    CL        CD       CDp       CM     Top_Xtr  Bot_Xtr
  ------ -------- --------- --------- -------- -------- --------
   0.000   0.9290   0.00858   0.00408  -0.2203   0.8045   0.9571
   2.000   1.1525   0.00900   0.00410  -0.2209   0.7613   1.0000
   4.000   1.3550   0.00973   0.00481  -0.2171   0.6965   1.0000
   5.000   1.4474   0.01036   0.00545  -0.2135   0.6518   1.0000
