  
       XFOIL         Version 6.99
  
 Calculated polar for:                                                 
  
 1 1 Reynolds number fixed          Mach number fixed         
  
 xtrf =   1.000 (top)        1.000 (bottom)  
 Mach =   0.000     Re =     0.400 e 6     Ncrit =   9.000
  
   alpha    CL        CD       CDp       CM     Top_Xtr  Bot_Xtr
  ------ -------- --------- --------- -------- -------- --------
   0.000   0.9875   0.00937   0.00428  -0.2279   0.8155   0.7604
   2.000   1.1849   0.00925   0.00429  -0.2234   0.7743   1.0000
   4.000   1.3867   0.00990   0.00519  -0.2206   0.7147   1.0000
   5.000   1.4592   0.01059   0.00582  -0.2125   0.6304   1.0000
