  
       XFOIL         Version 6.99
  
 Calculated polar for:                                                 
  
 1 1 Reynolds number fixed          Mach number fixed         
  
 xtrf =   1.000 (top)        1.000 (bottom)  
 Mach =   0.000     Re =     0.400 e 6     Ncrit =   9.000
  
   alpha    CL        CD       CDp       CM     Top_Xtr  Bot_Xtr
  ------ -------- --------- --------- -------- -------- --------
   0.000   0.9155   0.00856   0.00397  -0.2123   0.8261   1.0000
   2.000   1.1341   0.00892   0.00403  -0.2121   0.7757   1.0000
   4.000   1.3330   0.00967   0.00475  -0.2076   0.6996   1.0000
   5.000   1.4182   0.01044   0.00550  -0.2024   0.6414   1.0000
