  
       XFOIL         Version 6.99
  
 Calculated polar for:                                                 
  
 1 1 Reynolds number fixed          Mach number fixed         
  
 xtrf =   1.000 (top)        1.000 (bottom)  
 Mach =   0.000     Re =     0.400 e 6     Ncrit =   9.000
  
   alpha    CL        CD       CDp       CM     Top_Xtr  Bot_Xtr
  ------ -------- --------- --------- -------- -------- --------
   0.000   1.0052   0.00906   0.00386  -0.2364   0.8011   0.6812
   2.000   1.1913   0.00910   0.00409  -0.2281   0.7327   1.0000
   4.000   1.3848   0.01043   0.00516  -0.2224   0.6446   1.0000
   5.000   1.4683   0.01140   0.00607  -0.2168   0.5908   1.0000
