  
       XFOIL         Version 6.99
  
 Calculated polar for:                                                 
  
 1 1 Reynolds number fixed          Mach number fixed         
  
 xtrf =   1.000 (top)        1.000 (bottom)  
 Mach =   0.000     Re =     0.400 e 6     Ncrit =   9.000
  
   alpha    CL        CD       CDp       CM     Top_Xtr  Bot_Xtr
  ------ -------- --------- --------- -------- -------- --------
   0.000   0.9610   0.00892   0.00368  -0.2300   0.7909   0.6388
   2.000   1.1527   0.00888   0.00387  -0.2228   0.7377   1.0000
   4.000   1.3561   0.00992   0.00483  -0.2193   0.6691   1.0000
   5.000   1.4489   0.01067   0.00558  -0.2157   0.6252   1.0000
