  
       XFOIL         Version 6.99
  
 Calculated polar for:                                                 
  
 1 1 Reynolds number fixed          Mach number fixed         
  
 xtrf =   1.000 (top)        1.000 (bottom)  
 Mach =   0.000     Re =     0.400 e 6     Ncrit =   9.000
  
   alpha    CL        CD       CDp       CM     Top_Xtr  Bot_Xtr
  ------ -------- --------- --------- -------- -------- --------
   0.000   0.9689   0.00915   0.00408  -0.2235   0.8108   0.7154
   2.000   1.1628   0.00895   0.00407  -0.2171   0.7571   1.0000
   4.000   1.3628   0.00982   0.00486  -0.2128   0.6768   1.0000
   5.000   1.4495   0.01068   0.00565  -0.2080   0.6163   1.0000
